@<TRIPOS>MOLECULE
*****
    8     7     1     0     0
SMALL
mul


@<TRIPOS>ATOM
      1 P           2.6270    0.3140   -0.1490 p5        1 LIG      2.632000
      2 O           3.0190    1.6320    0.8560 oh        1 LIG     -0.837000
      3 H           2.6350    2.5960    0.8470 ho        1 LIG      0.288000
      4 O1          4.0220   -0.5790   -0.4480 oh        1 LIG     -0.815000
      5 H1          4.8560   -0.2100   -0.9140 ho        1 LIG      0.289000
      6 O2          1.3780   -0.6900    0.4540 oh        1 LIG     -0.784000
      7 H2          0.8970   -1.5060   -0.0000 ho        1 LIG      0.286000
      8 O3          2.1380    0.9180   -1.5750 o         1 LIG     -1.059000
@<TRIPOS>BOND
     1    1    2 1   
     2    2    3 1   
     3    1    4 1   
     4    4    5 1   
     5    1    6 1   
     6    6    7 1   
     7    1    8 2   
@<TRIPOS>SUBSTRUCTURE
     1 LIG         1 TEMP              0 ****  ****    0 ROOT
