#
# Generated by PyRED version SEP-2015
#     http://q4md-forcefieldtools.org
#
@<TRIPOS>MOLECULE
PI1
     6     5     1     0     1
SMALL
USER_CHARGES
@<TRIPOS>ATOM
   1 P     -0.140847   0.025281  -0.000020 P    1   PI1  1.5653  0.0000 ****
   2 O     -0.314270   0.851446  -1.290935 O2   1   PI1 -1.0450  0.0000 ****
   3 O2    -0.314804   0.851943   1.290501 O2   1   PI1 -1.0450  0.0000 ****
   4 O3    -0.870640  -1.328046   0.000071 O2   1   PI1 -1.0450  0.0000 ****
   5 O1     1.505096  -0.462554   0.000390 OH   1   PI1 -0.8328  0.0000 ****
   6 H      2.069654   0.318480   0.000087 HO   1   PI1  0.4025  0.0000 ****
@<TRIPOS>BOND
    1     1     2 1
    2     1     3 1
    3     1     4 1
    4     1     5 1
    5     5     6 1
@<TRIPOS>SUBSTRUCTURE
      1 PI1               1 ****               0 ****  ****
@<TRIPOS>HEADTAIL
0 0
0 0
@<TRIPOS>RESIDUECONNECT
1 0 0 0 0 0 0
