@<TRIPOS>MOLECULE
PI1
    6     5     1     0     0
SMALL
mul


@<TRIPOS>ATOM
      1 P           0.1890   -0.3930   -0.2730 p5        1 PI1      2.512000
      2 O           1.2610   -0.5790   -1.2770 o         1 PI1     -1.269000
      3 O1          0.2020    1.0360    0.4940 oh        1 PI1     -0.848000
      4 O2         -1.3290   -0.4740   -0.8440 o         1 PI1     -1.290000
      5 O3          0.1780   -1.4590    0.9530 o         1 PI1     -1.269000
      6 H           0.1080    1.7510   -0.1580 ho        1 PI1      0.163000
@<TRIPOS>BOND
     1    1    2 1   
     2    1    3 1   
     3    1    4 1   
     4    1    5 1   
     5    3    6 1   
@<TRIPOS>SUBSTRUCTURE
     1 PI1         1 TEMP              0 ****  ****    0 ROOT
