@<TRIPOS>MOLECULE
PI1
    6     5     1     0     1 
SMALL
USER_CHARGES
@<TRIPOS>ATOM
  1 P      -0.138000   -0.027100   -0.000000 p5    1 PI1     1.6043 ****
  2 O       0.022793    0.562526    1.413543 o     1 PI1    -1.0571 ****
  3 O1      0.717328   -1.271314   -0.277045 o     1 PI1    -1.0571 ****
  4 O2     -0.110760    1.033926   -1.115841 o     1 PI1    -1.0571 ****
  5 O3     -1.717532   -0.672171   -0.036821 oh    1 PI1    -0.8372 ****
  6 H      -2.342857    0.040349    0.128988 ho    1 PI1     0.4042 ****
@<TRIPOS>BOND
    1     1     4 1
    2     1     3 1
    3     1     5 1
    4     1     2 1
    5     5     6 1
@<TRIPOS>SUBSTRUCTURE
      1  PI1              1 ****               0 ****  **** 
