@<TRIPOS>MOLECULE
PI1
    6     5     1     0     1 
SMALL
USER_CHARGES
@<TRIPOS>ATOM
  1 P       0.000000   -0.138000    0.000000 p5    1 PI1     1.6043 ****
  2 O       1.413543    0.022793    0.000000 o     1 PI1    -1.0571 ****
  3 O1     -0.277045    0.717328    0.000000 o     1 PI1    -1.0571 ****
  4 O2     -1.115841   -0.110760    0.000000 o     1 PI1    -1.0571 ****
  5 O3     -0.036821   -1.717532    0.000000 oh    1 PI1    -0.8372 ****
  6 H       0.128988   -2.342857    0.000000 ho    1 PI1     0.4042 ****
@<TRIPOS>BOND
    1     1     4 1
    2     1     3 1
    3     1     5 1
    4     1     2 1
    5     5     6 1
@<TRIPOS>SUBSTRUCTURE
      1  PI1              1 ****               0 ****  **** 
