@<TRIPOS>MOLECULE
PI1
    6     5     1     0     1 
SMALL
USER_CHARGES
@<TRIPOS>ATOM
  1 P       0.138000   -0.027100    0.000000 p5    1 PI1     1.6043 ****
  2 O       0.296900   -0.855900    1.288200 o     1 PI1    -1.0571 ****
  3 O1      0.893100    1.309400    0.000000 o     1 PI1    -1.0571 ****
  4 O2      0.296900   -0.855900   -1.288200 o     1 PI1    -1.0571 ****
  5 O3     -1.488600    0.489200    0.000000 oh    1 PI1    -0.8372 ****
  6 H      -2.056200   -0.288000    0.000000 ho    1 PI1     0.4042 ****
@<TRIPOS>BOND
    1     1     4 1
    2     1     3 1
    3     1     5 1
    4     1     2 1
    5     5     6 1
@<TRIPOS>SUBSTRUCTURE
      1  PI1              1 ****               0 ****  **** 
