@<TRIPOS>MOLECULE
PI1
 6 5 0 0 0
SMALL
GASTEIGER

@<TRIPOS>ATOM
      1 P          -0.1380   -0.0271   -0.0000 p5       1  LIG1        1.6043
      2 O          -0.2969   -0.8559    1.2882 o        1  LIG1       -1.0571
      3 O1         -0.8931    1.3094   -0.0000 o        1  LIG1       -1.0571
      4 O2         -0.2969   -0.8559   -1.2882 o        1  LIG1       -1.0571
      5 O3          1.4886    0.4892    0.0000 oh       1  LIG1       -0.8372
      6 H           2.0562   -0.2880    0.0000 ho       1  LIG1        0.4042
@<TRIPOS>BOND	
     1     4     1    2
     2     3     1    1
     3     1     5    1
     4     1     2    1
     5     5     6    1
