@<TRIPOS>MOLECULE
LIG
   38    39     1     0     0
SMALL
bcc


@<TRIPOS>ATOM
      1 N          -2.5790    2.8850   -1.0640 ne        1 LIG     -0.222400
      2 N1         -1.7210    2.2380   -0.4290 nf        1 LIG     -0.222400
      3 C          -3.9700    2.6730   -0.8650 ca        1 LIG      0.031400
      4 C1         -0.3310    2.4500   -0.6290 ca        1 LIG      0.031400
      5 C2         -4.4460    1.7260    0.0560 ca        1 LIG     -0.071000
      6 C3          0.5820    1.6980    0.1100 ca        1 LIG     -0.071000
      7 C4         -5.8200    1.5350    0.2350 ca        1 LIG     -0.210500
      8 C5         -4.8830    3.4260   -1.6030 ca        1 LIG     -0.071000
      9 C6          0.1450    3.3960   -1.5510 ca        1 LIG     -0.071000
     10 C7          1.9560    1.8820   -0.0630 ca        1 LIG     -0.210500
     11 C8         -6.7550    2.2970   -0.5120 ca        1 LIG      0.127600
     12 C9         -6.2560    3.2410   -1.4300 ca        1 LIG     -0.210500
     13 C10         1.5200    3.5860   -1.7300 ca        1 LIG     -0.210500
     14 C11         2.4540    2.8260   -0.9820 ca        1 LIG      0.127600
     15 N2         -8.1860    2.1680   -0.3930 n         1 LIG     -0.464100
     16 N3          3.8850    2.9550   -1.1010 n         1 LIG     -0.464100
     17 C12        -8.8810    1.3210    0.4280 c         1 LIG      0.657100
     18 C13         4.5800    3.8000   -1.9240 c         1 LIG      0.657100
     19 O           4.0110    4.5690   -2.6800 o         1 LIG     -0.663100
     20 C14       -10.3900    1.3480    0.3950 c3        1 LIG     -0.000100
     21 C15         6.0890    3.7740   -1.8910 c3        1 LIG     -0.000100
     22 S         -11.1450    0.1560    1.5510 s         1 LIG     -0.938300
     23 S1          6.8440    4.9620   -3.0500 s         1 LIG     -0.938300
     24 H         -10.7370    1.1070   -0.6320 h1        1 LIG      0.039700
     25 H1        -10.7430    2.3660    0.6610 h1        1 LIG      0.039700
     26 H2         -6.1100    0.7950    0.9550 ha        1 LIG      0.152000
     27 H3         -3.7540    1.1310    0.6390 ha        1 LIG      0.133500
     28 H4         -4.5280    4.1600   -2.3160 ha        1 LIG      0.133500
     29 H5         -6.9410    3.8410   -2.0180 ha        1 LIG      0.152000
     30 H6         -0.5460    3.9900   -2.1350 ha        1 LIG      0.133500
     31 H7          1.8090    4.3250   -2.4510 ha        1 LIG      0.152000
     32 H8          2.6400    1.2840    0.5250 ha        1 LIG      0.152000
     33 H9          0.2280    0.9650    0.8250 ha        1 LIG      0.133500
     34 O1         -8.3120    0.5500    1.1810 o         1 LIG     -0.663100
     35 H10         6.4420    2.7550   -2.1550 h1        1 LIG      0.039700
     36 H11         6.4360    4.0170   -0.8650 h1        1 LIG      0.039700
     37 H12        -8.7530    2.7840   -0.9960 hn        1 LIG      0.385500
     38 H13         4.4530    2.3400   -0.4970 hn        1 LIG      0.385500
@<TRIPOS>BOND
     1    1    2 2   
     2    1    3 1   
     3    2    4 1   
     4    3    5 ar  
     5    3    8 ar  
     6    4    6 ar  
     7    4    9 ar  
     8    5    7 ar  
     9    5   27 1   
    10    6   10 ar  
    11    6   33 1   
    12    7   11 ar  
    13    7   26 1   
    14    8   12 ar  
    15    8   28 1   
    16    9   13 ar  
    17    9   30 1   
    18   10   14 ar  
    19   10   32 1   
    20   11   12 ar  
    21   11   15 1   
    22   12   29 1   
    23   13   14 ar  
    24   13   31 1   
    25   14   16 1   
    26   15   17 1   
    27   15   37 1   
    28   16   18 1   
    29   16   38 1   
    30   17   20 1   
    31   17   34 2   
    32   18   19 2   
    33   18   21 1   
    34   20   22 1   
    35   20   24 1   
    36   20   25 1   
    37   21   23 1   
    38   21   35 1   
    39   21   36 1   
@<TRIPOS>SUBSTRUCTURE
     1 LIG         1 TEMP              0 ****  ****    0 ROOT
