#
# Generated by PyRED version SEP-2015
#     http://q4md-forcefieldtools.org
#
@<TRIPOS>MOLECULE
LIG
    40    41     1     0     1
SMALL
USER_CHARGES
@<TRIPOS>ATOM
   1 N1    -0.314698   0.544229  -0.408273 NC   1   LIG -0.1722  0.0000 ****
   2 N2     0.314695  -0.544206  -0.408304 NC   1   LIG -0.1722  0.0000 ****
   3 C1    -1.722903   0.438929  -0.396780 CA   1   LIG  0.2191  0.0000 ****
   4 C2     1.722901  -0.438907  -0.396815 CA   1   LIG  0.2191  0.0000 ****
   5 C3    -2.443616  -0.762795  -0.313982 CA   1   LIG -0.1540  0.0000 ****
   6 H1    -1.906981  -1.700628  -0.257320 HA   1   LIG  0.0919  0.0000 ****
   7 C4     2.427213  -1.648850  -0.463564 CA   1   LIG -0.1540  0.0000 ****
   8 H2     1.871643  -2.577095  -0.525179 HA   1   LIG  0.0919  0.0000 ****
   9 C5    -3.829974  -0.760851  -0.298282 CA   1   LIG -0.1652  0.0000 ****
  10 H3    -4.376764  -1.688003  -0.231398 HA   1   LIG  0.1738  0.0000 ****
  11 C6    -2.427216   1.648875  -0.463463 CA   1   LIG -0.1540  0.0000 ****
  12 H4    -1.871648   2.577123  -0.525034 HA   1   LIG  0.0919  0.0000 ****
  13 C7     2.443615   0.762812  -0.313963 CA   1   LIG -0.1540  0.0000 ****
  14 H5     1.906981   1.700643  -0.257249 HA   1   LIG  0.0919  0.0000 ****
  15 C8     3.812432  -1.660245  -0.452203 CA   1   LIG -0.1652  0.0000 ****
  16 H6     4.344703  -2.603584  -0.506232 HA   1   LIG  0.1738  0.0000 ****
  17 C9    -4.531113   0.457447  -0.366361 CA   1   LIG  0.1808  0.0000 ****
  18 C10   -3.812436   1.660268  -0.452092 CA   1   LIG -0.1652  0.0000 ****
  19 H7    -4.344707   2.603610  -0.506070 HA   1   LIG  0.1738  0.0000 ****
  20 C11    3.829973   0.760867  -0.298272 CA   1   LIG -0.1652  0.0000 ****
  21 H8     4.376764   1.688015  -0.231346 HA   1   LIG  0.1738  0.0000 ****
  22 C12    4.531111  -0.457429  -0.366417 CA   1   LIG  0.1808  0.0000 ****
  23 N3    -5.934087   0.549638  -0.349867 N    1   LIG -0.4667  0.0000 ****
  24 H9    -6.294563   1.493145  -0.386217 H    1   LIG  0.3285  0.0000 ****
  25 N      5.934085  -0.549622  -0.349938 N    1   LIG -0.4667  0.0000 ****
  26 H10    6.294560  -1.493127  -0.386331 H    1   LIG  0.3285  0.0000 ****
  27 C13   -6.872000  -0.444670  -0.253650 C    1   LIG  0.6430  0.0000 ****
  28 O1    -6.608709  -1.639721  -0.205528 O    1   LIG -0.5670  0.0000 ****
  29 C14    6.872001   0.444680  -0.253678 C    1   LIG  0.6430  0.0000 ****
  30 O      6.608713   1.639730  -0.205500 O    1   LIG -0.5670  0.0000 ****
  31 C15   -8.308905   0.047468  -0.189346 CT   1   LIG -0.3871  0.0000 ****
  32 H11   -8.938734  -0.638858  -0.751620 H1   1   LIG  0.1995  0.0000 ****
  33 H12   -8.431356   1.051782  -0.593584 H1   1   LIG  0.1995  0.0000 ****
  34 S1    -8.914463   0.145013   1.549996 SH   1   LIG -0.2872  0.0000 ****
  35 H13   -8.850235  -1.176728   1.808280 HS   1   LIG  0.2168  0.0000 ****
  36 C      8.308904  -0.047464  -0.189402 CT   1   LIG -0.3871  0.0000 ****
  37 H14    8.938733   0.638886  -0.751646 H1   1   LIG  0.1995  0.0000 ****
  38 H15    8.431352  -1.051760  -0.593687 H1   1   LIG  0.1995  0.0000 ****
  39 S      8.914468  -0.145089   1.549934 SH   1   LIG -0.2872  0.0000 ****
  40 H      8.850254   1.176642   1.808274 HS   1   LIG  0.2168  0.0000 ****
@<TRIPOS>BOND
    1     1     2 1
    2     1     3 1
    3     2     4 1
    4     3     5 1
    5     3    11 1
    6     4     7 1
    7     4    13 1
    8     5     6 1
    9     5     9 1
   10     7     8 1
   11     7    15 1
   12     9    10 1
   13     9    17 1
   14    11    12 1
   15    11    18 1
   16    13    14 1
   17    13    20 1
   18    15    16 1
   19    15    22 1
   20    17    18 1
   21    17    23 1
   22    18    19 1
   23    20    21 1
   24    20    22 1
   25    22    25 1
   26    23    24 1
   27    23    27 1
   28    25    26 1
   29    25    29 1
   30    27    28 1
   31    27    31 1
   32    29    30 1
   33    29    36 1
   34    31    32 1
   35    31    33 1
   36    31    34 1
   37    34    35 1
   38    36    37 1
   39    36    38 1
   40    36    39 1
   41    39    40 1
@<TRIPOS>SUBSTRUCTURE
      1 LIG               1 ****               0 ****  ****
@<TRIPOS>HEADTAIL
0 0
0 0
@<TRIPOS>RESIDUECONNECT
1 0 0 0 0 0 0
