#
# Generated by PyRED version SEP-2015
#     http://q4md-forcefieldtools.org
#
@<TRIPOS>MOLECULE
LIG
     6     5     1     0     1
SMALL
USER_CHARGES
@<TRIPOS>ATOM
   1 P     -0.138000  -0.027000  -0.000000 P    1   LIG  1.6043  0.0000 ****
   2 O     -0.297000  -0.856000   1.288000 O2   1   LIG -1.0571  0.0000 ****
   3 O1    -0.893000   1.309000  -0.000000 O2   1   LIG -1.0571  0.0000 ****
   4 O2    -0.297000  -0.856000  -1.288000 O2   1   LIG -1.0571  0.0000 ****
   5 O3     1.489000   0.489000   0.000000 OH   1   LIG -0.8372  0.0000 ****
   6 H      2.056000  -0.288000   0.000000 HO   1   LIG  0.4042  0.0000 ****
@<TRIPOS>BOND
    1     1     2 1
    2     1     3 1
    3     1     4 1
    4     1     5 
    5     5     6 1
@<TRIPOS>SUBSTRUCTURE
      1 LIG               1 ****               0 ****  ****
@<TRIPOS>HEADTAIL
0 0
0 0
@<TRIPOS>RESIDUECONNECT
1 0 0 0 0 0 0
