@<TRIPOS>MOLECULE
PI
    6     5     1     0     0
SMALL
mul


@<TRIPOS>ATOM
      1 P          -7.5590   -0.7330   22.9780 p5     3001 PI       2.512000
      2 O1         -8.7130   -1.1540   23.8770 o      3001 PI      -1.269000
      3 O2         -6.3910   -1.7180   23.0760 o      3001 PI      -1.290000
      4 O3         -7.0800    0.7010   23.3160 o      3001 PI      -1.269000
      5 O4         -8.1080   -0.7400   21.5190 oh     3001 PI      -0.848000
      6 H          -7.2750   -0.6970   20.8360 ho     3001 PI       0.163000
@<TRIPOS>BOND
     1    1    2 1   
     2    1    3 1   
     3    1    4 1   
     4    1    5 1   
     5    5    6 1   
@<TRIPOS>SUBSTRUCTURE
     1 PI          1 TEMP              0 ****  ****    0 ROOT
