@<TRIPOS>MOLECULE
PI
    6     5     1     0     0
SMALL
mul


@<TRIPOS>ATOM
      1 P          -7.4060   -0.7260   22.9080 p5     1401 PI       2.512000
      2 O1         -6.2440   -1.7160   22.9860 o      1401 PI      -1.290000
      3 O2         -8.5640   -1.1540   23.8120 o      1401 PI      -1.269000
      4 O3         -6.9230    0.6900   23.2470 o      1401 PI      -1.269000
      5 O4         -7.9510   -0.7300   21.4520 oh     1401 PI      -0.848000
      6 H          -7.0280   -0.6830   20.6980 ho     1401 PI       0.163000
@<TRIPOS>BOND
     1    1    2 1   
     2    1    3 1   
     3    1    4 1   
     4    1    5 1   
     5    5    6 1   
@<TRIPOS>SUBSTRUCTURE
     1 PI          1 TEMP              0 ****  ****    0 ROOT
