@<TRIPOS>MOLECULE
LIG
   44    45     1     0     0
SMALL
bcc


@<TRIPOS>ATOM
      1 N          -2.6240    3.1640   -1.3840 ne        1 LIG     -0.211400
      2 N1         -1.7510    2.4610   -0.6390 nf        1 LIG     -0.211400
      3 C          -3.9470    2.9740   -1.2140 ca        1 LIG      0.053900
      4 C1         -0.4300    2.6290   -0.8460 ca        1 LIG      0.053900
      5 C2         -4.4340    2.0730   -0.2650 ca        1 LIG     -0.059750
      6 C3          0.4840    1.9120   -0.0730 ca        1 LIG     -0.059750
      7 C4         -5.8090    1.8980   -0.0990 ca        1 LIG     -0.196750
      8 C5         -4.8470    3.6900   -2.0050 ca        1 LIG     -0.059750
      9 C6          0.0390    3.5100   -1.8230 ca        1 LIG     -0.059750
     10 C7          1.8570    2.0850   -0.2550 ca        1 LIG     -0.196750
     11 C8         -6.7110    2.6120   -0.8930 ca        1 LIG      0.160100
     12 C9         -6.2200    3.5010   -1.8510 ca        1 LIG     -0.196750
     13 C10         1.4130    3.6700   -2.0150 ca        1 LIG     -0.196750
     14 C11         2.3290    2.9710   -1.2290 ca        1 LIG      0.160100
     15 N2         -8.1120    2.4970   -0.7110 nh        1 LIG     -0.722600
     16 N3          3.7150    3.2180   -1.3960 nh        1 LIG     -0.722600
     17 H          -6.1540    1.2050    0.6580 ha        1 LIG      0.136250
     18 H1         -3.7490    1.5090    0.3580 ha        1 LIG      0.148000
     19 H2         -4.4750    4.3950   -2.7400 ha        1 LIG      0.148000
     20 H3         -6.9120    4.0620   -2.4710 ha        1 LIG      0.136250
     21 H4         -0.6530    4.0790   -2.4330 ha        1 LIG      0.148000
     22 H5          1.7700    4.3600   -2.7720 ha        1 LIG      0.136250
     23 H6          2.5370    1.5260    0.3760 ha        1 LIG      0.136250
     24 H7          0.1230    1.2240    0.6840 ha        1 LIG      0.148000
     25 C12       -10.1830    1.5160    0.1600 c         1 LIG      0.554100
     26 O         -10.7640    2.5490   -0.1310 o         1 LIG     -0.506100
     27 C13       -10.8820    0.5360    1.0610 c3        1 LIG     -0.081000
     28 Cl        -12.6080    0.5040    0.6860 cl        1 LIG     -0.152400
     29 C14        -8.6800    1.5230    0.2400 c3        1 LIG      0.086800
     30 H8         -8.5240    3.4770   -0.5170 hn        1 LIG      0.417800
     31 H9        -10.7540    0.8430    2.1100 h1        1 LIG      0.096700
     32 H10       -10.4650   -0.4730    0.9250 h1        1 LIG      0.096700
     33 H11        -8.3820    1.7970    1.2640 h1        1 LIG      0.075950
     34 H12        -8.3100    0.5130    0.0050 h1        1 LIG      0.075950
     35 C15         4.7220    2.4510   -0.6400 c3        1 LIG      0.086800
     36 C16         6.1130    2.8210   -1.0800 c         1 LIG      0.554100
     37 C17         7.2320    2.0750   -0.4080 c3        1 LIG     -0.081000
     38 Cl1         8.7680    2.4700   -1.1880 cl        1 LIG     -0.152400
     39 O1          6.3280    3.9590   -1.4660 o         1 LIG     -0.506100
     40 H13         4.5740    1.3740   -0.8080 h1        1 LIG      0.075950
     41 H14         4.6220    2.6760    0.4330 h1        1 LIG      0.075950
     42 H15         7.0630    0.9900   -0.4750 h1        1 LIG      0.096700
     43 H16         7.2880    2.3680    0.6510 h1        1 LIG      0.096700
     44 H17         3.9000    4.2760   -1.2790 hn        1 LIG      0.417800
@<TRIPOS>BOND
     1    1    2 2   
     2    1    3 1   
     3    2    4 1   
     4    3    5 ar  
     5    3    8 ar  
     6    4    6 ar  
     7    4    9 ar  
     8    5    7 ar  
     9    5   18 1   
    10    6   10 ar  
    11    6   24 1   
    12    7   11 ar  
    13    7   17 1   
    14    8   12 ar  
    15    8   19 1   
    16    9   13 ar  
    17    9   21 1   
    18   10   14 ar  
    19   10   23 1   
    20   11   12 ar  
    21   11   15 1   
    22   12   20 1   
    23   13   14 ar  
    24   13   22 1   
    25   14   16 1   
    26   15   29 1   
    27   15   30 1   
    28   16   35 1   
    29   16   44 1   
    30   25   26 2   
    31   25   27 1   
    32   25   29 1   
    33   27   28 1   
    34   27   31 1   
    35   27   32 1   
    36   29   33 1   
    37   29   34 1   
    38   35   36 1   
    39   35   40 1   
    40   35   41 1   
    41   36   37 1   
    42   36   39 2   
    43   37   38 1   
    44   37   42 1   
    45   37   43 1   
@<TRIPOS>SUBSTRUCTURE
     1 LIG         1 TEMP              0 ****  ****    0 ROOT
