@<TRIPOS>MOLECULE
LIG
   38    39     1     0     0
SMALL
No Charge or Current Charge


@<TRIPOS>ATOM
      1 N          -1.9250    2.7110   -0.8130 ne        1 LIG      0.000000
      2 N1         -1.1970    3.6420   -1.2400 nf        1 LIG      0.000000
      3 C          -3.3500    2.7410   -0.7110 ca        1 LIG      0.000000
      4 C1         -1.6240    4.7330   -2.0570 ca        1 LIG      0.000000
      5 C2         -4.0610    1.5480   -0.8550 ca        1 LIG      0.000000
      6 C3         -0.9700    5.9600   -1.9350 ca        1 LIG      0.000000
      7 C4         -5.4550    1.5240   -0.7410 ca        1 LIG      0.000000
      8 C5         -4.0510    3.9220   -0.4160 ca        1 LIG      0.000000
      9 C6         -2.6420    4.5940   -3.0160 ca        1 LIG      0.000000
     10 C7         -1.3430    7.0450   -2.7310 ca        1 LIG      0.000000
     11 C8         -6.1740    2.7140   -0.4640 ca        1 LIG      0.000000
     12 C9         -5.4430    3.9060   -0.3010 ca        1 LIG      0.000000
     13 C10        -3.0200    5.6760   -3.8170 ca        1 LIG      0.000000
     14 C11        -2.3750    6.9310   -3.6820 ca        1 LIG      0.000000
     15 N2         -7.6080    2.7830   -0.3300 n         1 LIG      0.000000
     16 N3         -2.6990    8.0970   -4.4650 n         1 LIG      0.000000
     17 C12        -8.5070    1.7580   -0.4550 c         1 LIG      0.000000
     18 C13        -3.6750    8.2150   -5.4180 c         1 LIG      0.000000
     19 O          -4.4120    7.2860   -5.7010 o         1 LIG      0.000000
     20 C14        -9.9760    2.0500   -0.2740 c3        1 LIG      0.000000
     21 C15        -3.8620    9.5250   -6.1330 c3        1 LIG      0.000000
     22 S         -11.0230    0.5700   -0.4760 s         1 LIG      0.000000
     23 S1         -2.3620    9.9600   -7.0620 s         1 LIG      0.000000
     24 H         -10.2930    2.8080   -1.0210 h1        1 LIG      0.000000
     25 H1        -10.1440    2.4610    0.7440 h1        1 LIG      0.000000
     26 H2         -5.9280    0.5710   -0.8720 ha        1 LIG      0.000000
     27 H3         -3.5290    0.6280   -1.0630 ha        1 LIG      0.000000
     28 H4         -3.5270    4.8560   -0.2660 ha        1 LIG      0.000000
     29 H5         -5.9580    4.8320   -0.0770 ha        1 LIG      0.000000
     30 H6         -3.1410    3.6440   -3.1550 ha        1 LIG      0.000000
     31 H7         -3.8050    5.4950   -4.5250 ha        1 LIG      0.000000
     32 H8         -0.8220    7.9860   -2.6070 ha        1 LIG      0.000000
     33 H9         -0.1710    6.0780   -1.2140 ha        1 LIG      0.000000
     34 O1         -8.1490    0.6210   -0.7090 o         1 LIG      0.000000
     35 H10        -4.7100    9.4600   -6.8490 h1        1 LIG      0.000000
     36 H11        -4.0850   10.3240   -5.3950 h1        1 LIG      0.000000
     37 H12        -8.0040    3.7120   -0.1170 hn        1 LIG      0.000000
     38 H13        -2.1350    8.9420   -4.2820 hn        1 LIG      0.000000
@<TRIPOS>BOND
     1    1    2 2   
     2    1    3 1   
     3    2    4 1   
     4    3    5 ar  
     5    3    8 ar  
     6    4    6 ar  
     7    4    9 ar  
     8    5    7 ar  
     9    5   27 1   
    10    6   10 ar  
    11    6   33 1   
    12    7   11 ar  
    13    7   26 1   
    14    8   12 ar  
    15    8   28 1   
    16    9   13 ar  
    17    9   30 1   
    18   10   14 ar  
    19   10   32 1   
    20   11   12 ar  
    21   11   15 1   
    22   12   29 1   
    23   13   14 ar  
    24   13   31 1   
    25   14   16 1   
    26   15   17 1   
    27   15   37 1   
    28   16   18 1   
    29   16   38 1   
    30   17   20 1   
    31   17   34 2   
    32   18   19 2   
    33   18   21 1   
    34   20   22 1   
    35   20   24 1   
    36   20   25 1   
    37   21   23 1   
    38   21   35 1   
    39   21   36 1   
@<TRIPOS>SUBSTRUCTURE
     1 LIG         1 TEMP              0 ****  ****    0 ROOT
