#
# Generated by PyRED version SEP-2015
#     http://q4md-forcefieldtools.org
#
@<TRIPOS>MOLECULE
LIG
    40    41     1     0     1
SMALL
USER_CHARGES
@<TRIPOS>ATOM
   1 N1     0.516453   3.595097  -0.096247 NC   1   LIG -0.4143  0.0000 ****
   2 N2    -0.724811   3.627539   0.037290 NC   1   LIG -0.4143  0.0000 ****
   3 C1     1.304564   2.401981  -0.026742 CA   1   LIG  0.7614  0.0000 ****
   4 C2    -1.565352   2.469019   0.054221 CA   1   LIG  0.7614  0.0000 ****
   5 C3     2.375952   2.299088  -0.917311 CA   1   LIG -0.4657  0.0000 ****
   6 H1     2.506648   3.062601  -1.675479 HA   1   LIG  0.2237  0.0000 ****
   7 C4    -2.641088   2.482478   0.949779 CA   1   LIG -0.4657  0.0000 ****
   8 H2    -2.738590   3.301431   1.652658 HA   1   LIG  0.2237  0.0000 ****
   9 C5     3.259675   1.227156  -0.858373 CA   1   LIG -0.1025  0.0000 ****
  10 H3     4.064828   1.143258  -1.570587 HA   1   LIG  0.1733  0.0000 ****
  11 C6     1.169996   1.449617   0.993555 CA   1   LIG -0.4657  0.0000 ****
  12 H4     0.377905   1.536265   1.725823 HA   1   LIG  0.2237  0.0000 ****
  13 C7    -1.477925   1.441402  -0.891976 CA   1   LIG -0.4657  0.0000 ****
  14 H5    -0.682294   1.443158  -1.626011 HA   1   LIG  0.2237  0.0000 ****
  15 C8    -3.561806   1.447158   0.952102 CA   1   LIG -0.1025  0.0000 ****
  16 H6    -4.374710   1.452749   1.669794 HA   1   LIG  0.1733  0.0000 ****
  17 C9     3.113316   0.264672   0.150668 CA   1   LIG  0.0566  0.0000 ****
  18 C10    2.070762   0.401522   1.083089 CA   1   LIG -0.1025  0.0000 ****
  19 H7     1.968550  -0.321875   1.884965 HA   1   LIG  0.1733  0.0000 ****
  20 C11   -2.421838   0.421598  -0.922090 CA   1   LIG -0.1025  0.0000 ****
  21 H8    -2.356109  -0.357845  -1.664709 HA   1   LIG  0.1733  0.0000 ****
  22 C12   -3.464879   0.404722   0.016474 CA   1   LIG  0.0566  0.0000 ****
  23 N3     3.972397  -0.840145   0.308825 N    1   LIG -0.2826  0.0000 ****
  24 H9     3.778517  -1.413807   1.117730 H    1   LIG  0.2464  0.0000 ****
  25 N     -4.451514  -0.597184   0.067336 N    1   LIG -0.2826  0.0000 ****
  26 H10   -5.171481  -0.477161   0.773129 H    1   LIG  0.2464  0.0000 ****
  27 C13    5.022650  -1.240087  -0.471786 C    1   LIG  0.5999  0.0000 ****
  28 O1     5.379747  -0.667918  -1.494870 O    1   LIG -0.6006  0.0000 ****
  29 C14   -4.588050  -1.715513  -0.694458 C    1   LIG  0.5999  0.0000 ****
  30 O     -3.833653  -2.044912  -1.603552 O    1   LIG -0.6006  0.0000 ****
  31 C15    5.753421  -2.473354   0.034384 CT   1   LIG -0.2556  0.0000 ****
  32 H11    5.994590  -3.109632  -0.814993 H1   1   LIG  0.1620  0.0000 ****
  33 H12    5.169250  -3.048870   0.751633 H1   1   LIG  0.1620  0.0000 ****
  34 S1     7.307960  -2.025678   0.919402 SH   1   LIG -0.3167  0.0000 ****
  35 H13    7.941615  -1.494355  -0.145476 HS   1   LIG  0.2239  0.0000 ****
  36 C     -5.759717  -2.637218  -0.342719 CT   1   LIG -0.2556  0.0000 ****
  37 H14   -6.197709  -2.982488  -1.277646 H1   1   LIG  0.1620  0.0000 ****
  38 H15   -5.341225  -3.510713   0.162053 H1   1   LIG  0.1620  0.0000 ****
  39 S     -7.078311  -2.014737   0.773142 SH   1   LIG -0.3167  0.0000 ****
  40 H     -7.708680  -1.236030  -0.129532 HS   1   LIG  0.2239  0.0000 ****
@<TRIPOS>BOND
    1     1     2 1
    2     1     3 1
    3     2     4 1
    4     3     5 1
    5     3    11 1
    6     4     7 1
    7     4    13 1
    8     5     6 1
    9     5     9 1
   10     7     8 1
   11     7    15 1
   12     9    10 1
   13     9    17 1
   14    11    12 1
   15    11    18 1
   16    13    14 1
   17    13    20 1
   18    15    16 1
   19    15    22 1
   20    17    18 1
   21    17    23 1
   22    18    19 1
   23    20    21 1
   24    20    22 1
   25    22    25 1
   26    23    24 1
   27    23    27 1
   28    25    26 1
   29    25    29 1
   30    27    28 1
   31    27    31 1
   32    29    30 1
   33    29    36 1
   34    31    32 1
   35    31    33 1
   36    31    34 1
   37    34    35 1
   38    36    37 1
   39    36    38 1
   40    36    39 1
   41    39    40 1
@<TRIPOS>SUBSTRUCTURE
      1 LIG               1 ****               0 ****  ****
@<TRIPOS>HEADTAIL
0 0
0 0
@<TRIPOS>RESIDUECONNECT
1 0 0 0 0 0 0
