@<TRIPOS>MOLECULE
LIG
   38    39     1     0     0
SMALL
bcc


@<TRIPOS>ATOM
      1 N          -1.9250    2.7110   -0.8130 ne        1 LIG     -0.135900
      2 N1         -1.1970    3.6420   -1.2400 nf        1 LIG     -0.135900
      3 C          -3.3500    2.7410   -0.7110 ca        1 LIG      0.004400
      4 C1         -1.6240    4.7330   -2.0570 ca        1 LIG      0.004400
      5 C2         -4.0610    1.5480   -0.8550 ca        1 LIG     -0.078750
      6 C3         -0.9700    5.9600   -1.9350 ca        1 LIG     -0.078750
      7 C4         -5.4550    1.5240   -0.7410 ca        1 LIG     -0.171750
      8 C5         -4.0510    3.9220   -0.4160 ca        1 LIG     -0.078750
      9 C6         -2.6420    4.5940   -3.0160 ca        1 LIG     -0.078750
     10 C7         -1.3430    7.0450   -2.7310 ca        1 LIG     -0.171750
     11 C8         -6.1740    2.7140   -0.4640 ca        1 LIG      0.080600
     12 C9         -5.4430    3.9060   -0.3010 ca        1 LIG     -0.171750
     13 C10        -3.0200    5.6760   -3.8170 ca        1 LIG     -0.171750
     14 C11        -2.3750    6.9310   -3.6820 ca        1 LIG      0.080600
     15 N2         -7.6080    2.7830   -0.3300 n         1 LIG     -0.460600
     16 N3         -2.6990    8.0970   -4.4650 n         1 LIG     -0.460600
     17 C12        -8.5070    1.7580   -0.4550 c         1 LIG      0.662100
     18 C13        -3.6750    8.2150   -5.4180 c         1 LIG      0.662100
     19 O          -4.4120    7.2860   -5.7010 o         1 LIG     -0.574100
     20 C14        -9.9760    2.0500   -0.2740 c3        1 LIG     -0.058500
     21 C15        -3.8620    9.5250   -6.1330 c3        1 LIG     -0.058500
     22 H         -10.2930    2.8080   -1.0210 h1        1 LIG      0.102450
     23 H1        -10.1440    2.4610    0.7440 h1        1 LIG      0.102450
     24 H2         -5.9280    0.5710   -0.8720 ha        1 LIG      0.156750
     25 H3         -3.5270    4.8560   -0.2660 ha        1 LIG      0.148750
     26 H4         -5.9580    4.8320   -0.0770 ha        1 LIG      0.156750
     27 H5         -3.1410    3.6440   -3.1550 ha        1 LIG      0.148750
     28 H6         -3.8050    5.4950   -4.5250 ha        1 LIG      0.156750
     29 H7         -0.8220    7.9860   -2.6070 ha        1 LIG      0.156750
     30 H8         -0.1710    6.0780   -1.2140 ha        1 LIG      0.148750
     31 O1         -8.1490    0.6210   -0.7090 o         1 LIG     -0.574100
     32 H9         -4.7100    9.4600   -6.8490 h1        1 LIG      0.102450
     33 H10        -4.0850   10.3240   -5.3950 h1        1 LIG      0.102450
     34 H11        -8.0040    3.7120   -0.1170 hn        1 LIG      0.328500
     35 H12        -2.1350    8.9420   -4.2820 hn        1 LIG      0.328500
     36 Cl         -2.3620    9.9600   -7.0620 cl        1 LIG     -0.159900
     37 Cl1       -11.0230    0.5700   -0.4760 cl        1 LIG     -0.159900
     38 H13        -3.5510    0.6720   -1.0480 ha        1 LIG      0.148750
@<TRIPOS>BOND
     1    1    2 2   
     2    1    3 1   
     3    2    4 1   
     4    3    5 ar  
     5    3    8 ar  
     6    4    6 ar  
     7    4    9 ar  
     8    5    7 ar  
     9    5   38 1   
    10    6   10 ar  
    11    6   30 1   
    12    7   11 ar  
    13    7   24 1   
    14    8   12 ar  
    15    8   25 1   
    16    9   13 ar  
    17    9   27 1   
    18   10   14 ar  
    19   10   29 1   
    20   11   12 ar  
    21   11   15 1   
    22   12   26 1   
    23   13   14 ar  
    24   13   28 1   
    25   14   16 1   
    26   15   17 1   
    27   15   34 1   
    28   16   18 1   
    29   16   35 1   
    30   17   20 1   
    31   17   31 2   
    32   18   19 2   
    33   18   21 1   
    34   20   22 1   
    35   20   23 1   
    36   20   37 1   
    37   21   32 1   
    38   21   33 1   
    39   21   36 1   
@<TRIPOS>SUBSTRUCTURE
     1 LIG         1 TEMP              0 ****  ****    0 ROOT
