@<TRIPOS>MOLECULE
*****
    8     7     1     0     0
SMALL
mul


@<TRIPOS>ATOM
      1 P           2.5770    0.3620   -0.2550 p5        1 LIG      2.632000
      2 O           2.1150    0.9050   -1.5510 o         1 LIG     -1.059000
      3 O1          2.9170    1.5890    0.8820 oh        1 LIG     -0.837000
      4 H           2.6350    2.5960    0.8470 ho        1 LIG      0.288000
      5 O2          4.0170   -0.5140   -0.3960 oh        1 LIG     -0.815000
      6 H1          4.8560   -0.2100   -0.9140 ho        1 LIG      0.289000
      7 O3          1.4420   -0.7200    0.4460 oh        1 LIG     -0.784000
      8 H2          0.8970   -1.5060   -0.0000 ho        1 LIG      0.286000
@<TRIPOS>BOND
     1    2    1 2   
     2    1    3 1   
     3    3    4 1   
     4    1    5 1   
     5    5    6 1   
     6    1    7 1   
     7    7    8 1   
@<TRIPOS>SUBSTRUCTURE
     1 LIG         1 TEMP              0 ****  ****    0 ROOT
