@<TRIPOS>MOLECULE
*****
 8 7 0 0 0
SMALL
GASTEIGER

@<TRIPOS>ATOM
      1 P           2.5767    0.3617   -0.2550 P.3     1  LIG1        0.4698
      2 O           2.1154    0.9055   -1.5511 O.2     1  LIG1       -0.2277
      3 O           2.9172    1.5887    0.8816 O.3     1  LIG1       -0.3027
      4 H           2.6355    2.5964    0.8471 H       1  LIG1        0.2220
      5 O           4.0167   -0.5138   -0.3955 O.3     1  LIG1       -0.3027
      6 H           4.8558   -0.2102   -0.9145 H       1  LIG1        0.2220
      7 O           1.4425   -0.7197    0.4461 O.3     1  LIG1       -0.3027
      8 H           0.8975   -1.5059   -0.0000 H       1  LIG1        0.2220
@<TRIPOS>BOND
     1     2     1    2
     2     1     3    1
     3     3     4    1
     4     1     5    1
     5     5     6    1
     6     1     7    1
     7     7     8    1
