@<TRIPOS>MOLECULE
*****
 8 7 0 0 0
SMALL
GASTEIGER

@<TRIPOS>ATOM
      1 P           2.6269    0.3140   -0.1493 P.3     1  LIG1        0.4039
      2 O           3.0193    1.6317    0.8558 O.3     1  LIG1       -0.3126
      3 H           2.6355    2.5964    0.8471 H       1  LIG1        0.2210
      4 O           4.0219   -0.5785   -0.4483 O.3     1  LIG1       -0.3126
      5 H           4.8558   -0.2102   -0.9145 H       1  LIG1        0.2210
      6 O           1.3776   -0.6901    0.4540 O.3     1  LIG1       -0.3126
      7 H           0.8975   -1.5059   -0.0000 H       1  LIG1        0.2210
      8 O           2.1377    0.9177   -1.5749 O.3     1  LIG1       -0.1289
@<TRIPOS>BOND
     1     1     2    1
     2     2     3    1
     3     1     4    1
     4     4     5    1
     5     1     6    1
     6     6     7    1
     7     1     8    1
