@<TRIPOS>MOLECULE
LIG
   44    45     1     0     0
SMALL
bcc


@<TRIPOS>ATOM
      1 N          -2.3550    2.7930   -1.5930 ne        1 LIG     -0.137900
      2 N1         -1.5950    3.9210   -1.3770 nf        1 LIG     -0.137900
      3 C          -3.7170    2.7050   -1.1940 ca        1 LIG     -0.003600
      4 C1         -1.8050    5.1300   -2.0950 ca        1 LIG     -0.003600
      5 C2         -4.4510    1.5650   -1.5330 ca        1 LIG     -0.074000
      6 C3         -1.0560    6.2590   -1.7570 ca        1 LIG     -0.074000
      7 C4         -5.7930    1.4460   -1.1570 ca        1 LIG     -0.181750
      8 C5         -4.3380    3.7350   -0.4660 ca        1 LIG     -0.074000
      9 C6         -2.7430    5.2130   -3.1380 ca        1 LIG     -0.074000
     10 C7         -1.2390    7.4610   -2.4440 ca        1 LIG     -0.181750
     11 C8         -6.4220    2.4770   -0.4290 ca        1 LIG      0.142600
     12 C9         -5.6790    3.6190   -0.0890 ca        1 LIG     -0.181750
     13 C10        -2.9310    6.4140   -3.8290 ca        1 LIG     -0.181750
     14 C11        -2.1780    7.5620   -3.4870 ca        1 LIG      0.142600
     15 N2         -7.7910    2.3900   -0.0300 nh        1 LIG     -0.710600
     16 N3         -2.3210    8.8230   -4.1560 nh        1 LIG     -0.710600
     17 H          -6.3300    0.5510   -1.4370 ha        1 LIG      0.139000
     18 H1         -3.9810    0.7650   -2.0920 ha        1 LIG      0.146250
     19 H2         -3.7900    4.6250   -0.1870 ha        1 LIG      0.146250
     20 H3         -6.1410    4.4220    0.4710 ha        1 LIG      0.139000
     21 H4         -3.3300    4.3500   -3.4220 ha        1 LIG      0.146250
     22 H5         -3.6610    6.4160   -4.6180 ha        1 LIG      0.139000
     23 H6         -0.6470    8.3230   -2.1620 ha        1 LIG      0.139000
     24 H7         -0.3280    6.2070   -0.9570 ha        1 LIG      0.146250
     25 H8         -1.7150    9.6000   -3.8490 hn        1 LIG      0.410800
     26 C12        -8.6230    1.2380   -0.3480 c3        1 LIG      0.083800
     27 C13       -10.0390    1.3570    0.1700 c         1 LIG      0.541100
     28 C14       -11.0060    0.2330   -0.0900 c3        1 LIG     -0.081000
     29 Cl        -12.6260    0.5490    0.5930 cl        1 LIG     -0.153900
     30 O         -10.4000    2.3470    0.7910 o         1 LIG     -0.508100
     31 H9         -8.1690    0.3280    0.1000 h1        1 LIG      0.082450
     32 H10        -8.6700    1.1190   -1.4510 h1        1 LIG      0.082450
     33 H11       -10.6110   -0.7020    0.3600 h1        1 LIG      0.096200
     34 H12       -11.1100    0.0860   -1.1860 h1        1 LIG      0.096200
     35 H13        -8.1910    3.1780    0.5010 hn        1 LIG      0.410800
     36 C15        -3.2610    9.1150   -5.2280 c3        1 LIG      0.083800
     37 C16        -2.5390    9.5340   -6.4840 c         1 LIG      0.541100
     38 C17        -3.3200    9.9270   -7.7030 c3        1 LIG     -0.081000
     39 Cl1        -2.9460   11.6100   -8.1530 cl        1 LIG     -0.153900
     40 O1         -1.3160    9.5490   -6.5220 o         1 LIG     -0.508100
     41 H14        -3.9190    9.9470   -4.8990 h1        1 LIG      0.082450
     42 H15        -3.9130    8.2660   -5.4850 h1        1 LIG      0.082450
     43 H16        -4.4110    9.8470   -7.5140 h1        1 LIG      0.096200
     44 H17        -3.0560    9.2550   -8.5460 h1        1 LIG      0.096200
@<TRIPOS>BOND
     1    1    2 2   
     2    1    3 1   
     3    2    4 1   
     4    3    5 ar  
     5    3    8 ar  
     6    4    6 ar  
     7    4    9 ar  
     8    5    7 ar  
     9    5   18 1   
    10    6   10 ar  
    11    6   24 1   
    12    7   11 ar  
    13    7   17 1   
    14    8   12 ar  
    15    8   19 1   
    16    9   13 ar  
    17    9   21 1   
    18   10   14 ar  
    19   10   23 1   
    20   11   12 ar  
    21   11   15 1   
    22   12   20 1   
    23   13   14 ar  
    24   13   22 1   
    25   14   16 1   
    26   15   26 1   
    27   15   35 1   
    28   16   25 1   
    29   16   36 1   
    30   26   27 1   
    31   26   31 1   
    32   26   32 1   
    33   27   28 1   
    34   27   30 2   
    35   28   29 1   
    36   28   33 1   
    37   28   34 1   
    38   36   37 1   
    39   36   41 1   
    40   36   42 1   
    41   37   38 1   
    42   37   40 2   
    43   38   39 1   
    44   38   43 1   
    45   38   44 1   
@<TRIPOS>SUBSTRUCTURE
     1 LIG         1 TEMP              0 ****  ****    0 ROOT
